data_Al18Co5Ni3
_audit_creation_date              2019-01-16
_audit_creation_method            'Materials Studio'
_symmetry_space_group_name_H-M    'P1'
_symmetry_Int_Tables_number       1
_symmetry_cell_setting            triclinic
loop_
_symmetry_equiv_pos_as_xyz
  x,y,z
_cell_length_a                    12.1460
_cell_length_b                    4.0702
_cell_length_c                    7.6520
_cell_angle_alpha                 90.0000
_cell_angle_beta                  105.8800
_cell_angle_gamma                 90.0000
loop_
_atom_site_label
_atom_site_type_symbol
_atom_site_fract_x
_atom_site_fract_y
_atom_site_fract_z
_atom_site_U_iso_or_equiv
_atom_site_adp_type
_atom_site_occupancy
Ni1    Ni    0.29340   0.00000   0.12720   0.00000  Uiso   1.00
Co2    Co    0.79340   0.50000   0.12720   0.00000  Uiso   1.00
Ni3    Ni    0.70660   0.00000   0.87280   0.00000  Uiso   1.00
Ni4    Ni    0.20660   0.50000   0.87280   0.00000  Uiso   1.00
Co5    Co    0.38640   0.50000   0.70910   0.00000  Uiso   1.00
Al6    Al    0.18140   0.50000   0.54500   0.00000  Uiso   1.00
Al7    Al    0.50460   0.50000   0.73770   0.00000  Uiso   1.00
Al8    Al    0.29810   0.50000   0.81000   0.00000  Uiso   1.00
Al9    Al    0.40320   0.50000   0.05420   0.00000  Uiso   1.00
Co10   Co    0.88640  -0.00000   0.70910   0.00000  Uiso   1.00
Al11   Al    0.68140  -0.00000   0.54500   0.00000  Uiso   1.00
Al12   Al    0.00460  -0.00000   0.73770   0.00000  Uiso   1.00
Al13   Al    0.79810  -0.00000   0.81000   0.00000  Uiso   1.00
Al14   Al    0.90320  -0.00000   0.05420   0.00000  Uiso   1.00
Co15   Co    0.61360   0.50000   0.29090   0.00000  Uiso   1.00
Al16   Al    0.81860   0.50000   0.45500   0.00000  Uiso   1.00
Al17   Al    0.49540   0.50000   0.26230   0.00000  Uiso   1.00
Al18   Al    0.70190   0.50000   0.19000   0.00000  Uiso   1.00
Al19   Al    0.59680   0.50000   0.94580   0.00000  Uiso   1.00
Co20   Co    0.11360  -0.00000   0.29090   0.00000  Uiso   1.00
Al21   Al    0.31860  -0.00000   0.45500   0.00000  Uiso   1.00
Al22   Al    0.99540  -0.00000   0.26230   0.00000  Uiso   1.00
Al23   Al    0.20190  -0.00000   0.19000   0.00000  Uiso   1.00
Al24   Al    0.09680  -0.00000   0.94580   0.00000  Uiso   1.00
Al25   Al    0.50000   0.50000   0.50000   0.00000  Uiso   1.00
Al26   Al    0.00000   0.00000   0.50000   0.00000  Uiso   1.00
