data_AlZrPt
_audit_creation_date              2019-01-16
_audit_creation_method            'Materials Studio'
_symmetry_space_group_name_H-M    'P-62M'
_symmetry_Int_Tables_number       189
_symmetry_cell_setting            hexagonal
loop_
_symmetry_equiv_pos_as_xyz
  x,y,z
  -y,x-y,z
  -x+y,-x,z
  x,y,-z
  -y,x-y,-z
  -x+y,-x,-z
  y,x,-z
  x-y,-y,-z
  -x,-x+y,-z
  y,x,z
  x-y,-y,z
  -x,-x+y,z
_cell_length_a                    7.1076
_cell_length_b                    7.1076
_cell_length_c                    3.6051
_cell_angle_alpha                 90.0000
_cell_angle_beta                  90.0000
_cell_angle_gamma                 120.0000
loop_
_atom_site_label
_atom_site_type_symbol
_atom_site_fract_x
_atom_site_fract_y
_atom_site_fract_z
_atom_site_U_iso_or_equiv
_atom_site_adp_type
_atom_site_occupancy
Al1    Al    0.25000   0.00000   0.00000   0.00000  Uiso   1.00
Zr2    Zr    0.59000   0.00000   0.50000   0.00000  Uiso   1.00
Pt3    Pt    0.33333   0.66667   0.00000   0.00000  Uiso   1.00
Pt4    Pt    0.00000   0.00000   0.50000   0.00000  Uiso   1.00
